** Abaqus input file created by pyFormex 3.2 (http://pyformex.org)
** pyFormex 3.2 (release-3.1-44-gbab5f524a) DEVELOPMENT VERSION
**
*HEADING
FEModel: feplast     Date: 2022-11-09 17:51:17.836526      Created by pyFormex
Script: examples.FePlast

**
**  NODES
**
*NODE, NSET=Nall
1,   0.000000e+00,   0.000000e+00,   0.000000e+00
2,   0.000000e+00,   1.000000e+01,   0.000000e+00
3,   0.000000e+00,   5.000000e+00,   0.000000e+00
4,   0.000000e+00,   1.500000e+01,   0.000000e+00
5,   0.000000e+00,   2.000000e+01,   0.000000e+00
6,   0.000000e+00,   2.500000e+01,   0.000000e+00
7,   0.000000e+00,   3.000000e+01,   0.000000e+00
8,   0.000000e+00,   3.500000e+01,   0.000000e+00
9,   0.000000e+00,   4.000000e+01,   0.000000e+00
10,   0.000000e+00,   5.000000e+01,   0.000000e+00
11,   0.000000e+00,   4.500000e+01,   0.000000e+00
12,   1.250000e+01,   0.000000e+00,   0.000000e+00
13,   1.250000e+01,   1.000000e+01,   0.000000e+00
14,   1.250000e+01,   5.000000e+00,   0.000000e+00
15,   1.250000e+01,   1.500000e+01,   0.000000e+00
16,   1.250000e+01,   2.000000e+01,   0.000000e+00
17,   1.250000e+01,   2.500000e+01,   0.000000e+00
18,   1.250000e+01,   3.000000e+01,   0.000000e+00
19,   1.250000e+01,   3.500000e+01,   0.000000e+00
20,   1.250000e+01,   4.000000e+01,   0.000000e+00
** ... 167 like lines cut
*NSET,NSET=YZ_plane
1,2,3,4,5,6,7,8,9,10,11,
*NSET,NSET=XZ_plane
1,12,23,34,45,56,67,78,89,100,111,122,133,144,155,166,
177,
**
**  ELEMENTS
**
*ELEMENT, TYPE=CPS4, ELSET=Eset_0_grp_0_Plate
1, 1, 12, 14, 3
2, 12, 23, 25, 14
3, 23, 34, 35, 25
4, 34, 45, 46, 35
5, 45, 56, 58, 46
6, 56, 67, 68, 58
7, 67, 78, 79, 68
8, 78, 89, 90, 79
9, 89, 100, 102, 90
10, 100, 111, 113, 102
11, 111, 122, 124, 113
12, 122, 133, 134, 124
13, 133, 144, 146, 134
14, 144, 155, 156, 146
15, 155, 166, 167, 156
16, 166, 177, 179, 167
17, 3, 14, 13, 2
18, 14, 25, 24, 13
19, 25, 35, 36, 24
20, 35, 46, 47, 36
** ... 140 like lines cut
*ELSET,ELSET=Eall
Eset_0_grp_0_Plate
*ELSET,ELSET=Plate
Eset_0_grp_0_Plate
*ELSET,ELSET=Eset_grp_0
Eset_0_grp_0_Plate
*ELSET,ELSET=Loaded-1
16,32,48,64,80,96,112,128,144,160,
*ELSET,ELSET=Loaded-1
16,32,48,64,80,96,112,128,144,160,
*ELSET,ELSET=Loaded-1
16,32,48,64,80,96,112,128,144,160,
*ELSET,ELSET=Loaded-1
16,32,48,64,80,96,112,128,144,160,
**
**  SECTIONS
**
*MATERIAL, NAME=steel
*ELASTIC
0.207, 0.3
*DENSITY
7.85e-09
*SOLID SECTION, ELSET=Plate, MATERIAL=steel
10.0
**
**  BOUNDARY CONDITIONS
**
*BOUNDARY
YZ_plane, 1
*BOUNDARY
XZ_plane, 2
**
**  STEP
**
*STEP
*STATIC
1.0, 1.0, 0.01, 1.0
*DLOAD
Loaded-1, P2, -10.0
*NODE PRINT, NSET=Nall
U
*EL PRINT, ELSET=Eall
S
*END STEP
**
**  STEP
**
*STEP
*STATIC
1.0, 1.0, 0.01, 1.0
*DLOAD
Loaded-1, P2, -100.0
*NODE PRINT, NSET=Nall
U
*EL PRINT, ELSET=Eall
S
*END STEP
**
**  STEP
**
*STEP
*STATIC
1.0, 1.0, 0.01, 1.0
*DLOAD
Loaded-1, P2, -320.0
*NODE PRINT, NSET=Nall
U
*EL PRINT, ELSET=Eall
S
*END STEP
**
**  STEP
**
*STEP
*STATIC
1.0, 1.0, 0.01, 1.0
*DLOAD
Loaded-1, P2, -400.0
*NODE PRINT, NSET=Nall
U
*EL PRINT, ELSET=Eall
S
*END STEP
